&elm_inparm
 hist_mfilt = 1, 1
 hist_nhtfrq = 0, 0
 hist_dov2xy = .true., .false.
 hist_fincl2 = 'GPP', 'ER', 'HR', 'NPP'
 fsurdat = '/compyfs/inputdata/lnd/clm2/surfdata_map/surfdata_1.9x2.5_SSP5_RCP85_simyr2015_c210916.nc'
 do_budgets = .false.
 do_harvest = .false.
